electric-grid/physical/smallsignal/simplified-14gen-australia/models/lf_case01_r4_s/au14genmodel.epc
title
LF_CASE01_R3_S  14-GENERATOR, SIMPLIFIED SYSTEM MODEL.
AREA4->AREA2->AREA3->AREA5 500-1000-500 MW.
!
comments
!
solution parameters
tap    1    tcul  enabled/disabled
phas   1    ps    enabled/disabled
area   1    area  enabled/disabled
svd    1    svd   enabled/disabled
dctap  1    dc    enabled/disabled
gcd    0    gcd   enabled/disabled
jump  0.000200    jumper threshold
toler   0.1000    newton tolerance
sbase 100.0000    system mva base
!
bus data  [59]               ty  vsched   volt     angle    ar zone  vmax   vmin   date_in date_out pid L own st  latitude  longitude island    sdmon   vmax1      vmin1      dvmax
    101 "1_HPSGEN    "  15.0000 :  0 1.00000 1.000000   0.00000   1    1 1.1000 0.9000   400101   391231   0 0   1 0    0.00000    0.00000 0    0.00000    0.00000    0.00000
    102 "1_HPS330    " 330.0000 :  1 1.038951 1.038951  -1.40229   1    1 1.1000 0.9000   400101   391231   0 0   1 0    0.00000    0.00000 0    0.00000    0.00000    0.00000
    201 "2_BPSGEN    "  20.0000 :  2 1.00000 1.000000  48.89975   2    1 1.1000 0.9000   400101   391231   0 0   1 0    0.00000    0.00000 0    0.00000    0.00000    0.00000
    202 "2_EPSGEN    "  20.0000 :  2 1.00000 1.000000  37.89926   2    1 1.1000 0.9000   400101   391231   0 0   1 0    0.00000    0.00000 0    0.00000    0.00000    0.00000
    203 "2_VPSGEN    "  20.0000 :  2 1.00000 1.000000  32.24033   2    1 1.1000 0.9000   400101   391231   0 0   1 0    0.00000    0.00000 0    0.00000    0.00000    0.00000
    204 "2_MPSGEN    "  20.0000 :  2 1.00000 1.000000  39.21041   2    1 1.1000 0.9000   400101   391231   0 0   1 0    0.00000    0.00000 0    0.00000    0.00000    0.00000
    205 "2_ASV330    " 330.0000 :  2 1.05500 1.055000  44.01666   2    1 1.1000 0.9000   400101   391231   0 0   1 0    0.00000    0.00000 0    0.00000    0.00000    0.00000
    206 "2_BPS330    " 330.0000 :  1 1.047195 1.047195  41.44595   2    1 1.1000 0.9000   400101   391231   0 0   1 0    0.00000    0.00000 0    0.00000    0.00000    0.00000
    207 "2_N__330    " 330.0000 :  1 1.022097 1.022097  27.69011   2    1 1.1000 0.9000   400101   391231   0 0   1 0    0.00000    0.00000 0    0.00000    0.00000    0.00000
    208 "2_VPS330    " 330.0000 :  1 1.032443 1.032443  26.24980   2    1 1.1000 0.9000   400101   391231   0 0   1 0    0.00000    0.00000 0    0.00000    0.00000    0.00000
    209 "2_EPS330    " 330.0000 :  1 1.037927 1.037927  30.41380   2    1 1.1000 0.9000   400101   391231   0 0   1 0    0.00000    0.00000 0    0.00000    0.00000    0.00000
    210 "2_EPS500    " 500.0000 :  1 1.059386 1.059386  26.67820   2    1 1.1000 0.9000   400101   391231   0 0   1 0    0.00000    0.00000 0    0.00000    0.00000    0.00000
    211 "2_SN_330    " 330.0000 :  1 1.008060 1.008060  18.86862   2    1 1.1000 0.9000   400101   391231   0 0   1 0    0.00000    0.00000 0    0.00000    0.00000    0.00000
    212 "2_SW_330    " 330.0000 :  1 1.008390 1.008390  19.12471   2    1 1.1000 0.9000   400101   391231   0 0   1 0    0.00000    0.00000 0    0.00000    0.00000    0.00000
    213 "2_K__500    " 500.0000 :  1 1.042627 1.042627  22.66767   2    1 1.1000 0.9000   400101   391231   0 0   1 0    0.00000    0.00000 0    0.00000    0.00000    0.00000
    214 "2_K__330    " 330.0000 :  1 1.025652 1.025652  18.74991   2    1 1.1000 0.9000   400101   391231   0 0   1 0    0.00000    0.00000 0    0.00000    0.00000    0.00000
    215 "2_MPS330    " 330.0000 :  1 1.043287 1.043287  33.11344   2    1 1.1000 0.9000   400101   391231   0 0   1 0    0.00000    0.00000 0    0.00000    0.00000    0.00000
    216 "2_SS_330    " 330.0000 :  1 1.012985 1.012985  16.09578   2    1 1.1000 0.9000   400101   391231   0 0   1 0    0.00000    0.00000 0    0.00000    0.00000    0.00000
    217 "2_YC_330    " 330.0000 :  1 1.002073 1.002073   9.38998   2    1 1.1000 0.9000   400101   391231   0 0   1 0    0.00000    0.00000 0    0.00000    0.00000    0.00000
    301 "3_LPSGEN    "  20.0000 :  2 1.00000 1.000000  -3.39080   3    1 1.1000 0.9000   400101   391231   0 0   1 0    0.00000    0.00000 0    0.00000    0.00000    0.00000
    302 "3_YPSGEN    "  20.0000 :  2 1.00000 1.000000 -18.01980   3    1 1.1000 0.9000   400101   391231   0 0   1 0    0.00000    0.00000 0    0.00000    0.00000    0.00000
    303 "3_LPS500    " 500.0000 :  1 1.041682 1.041682 -10.85222   3    1 1.1000 0.9000   400101   391231   0 0   1 0    0.00000    0.00000 0    0.00000    0.00000    0.00000
    304 "3_R__500    " 500.0000 :  1 1.009322 1.009322 -21.75046   3    1 1.1000 0.9000   400101   391231   0 0   1 0    0.00000    0.00000 0    0.00000    0.00000    0.00000
    305 "3_SM_500    " 500.0000 :  1 1.016394 1.016394 -22.76285   3    1 1.1000 0.9000   400101   391231   0 0   1 0    0.00000    0.00000 0    0.00000    0.00000    0.00000
    306 "3_K__500    " 500.0000 :  1 1.015968 1.015968 -24.92289   3    1 1.1000 0.9000   400101   391231   0 0   1 0    0.00000    0.00000 0    0.00000    0.00000    0.00000
    307 "3_M__500    " 500.0000 :  1 1.018224 1.018224 -24.97426   3    1 1.1000 0.9000   400101   391231   0 0   1 0    0.00000    0.00000 0    0.00000    0.00000    0.00000
    308 "3_H__500    " 500.0000 :  1 1.035849 1.035849 -35.41481   3    1 1.1000 0.9000   400101   391231   0 0   1 0    0.00000    0.00000 0    0.00000    0.00000    0.00000
    309 "3_D__330    " 330.0000 :  1 1.029125 1.029125  -9.34349   3    1 1.1000 0.9000   400101   391231   0 0   1 0    0.00000    0.00000 0    0.00000    0.00000    0.00000
    310 "3_SS_330    " 330.0000 :  1 1.019804 1.019804 -24.80812   3    1 1.1000 0.9000   400101   391231   0 0   1 0    0.00000    0.00000 0    0.00000    0.00000    0.00000
    311 "3_SM_330    " 330.0000 :  1 1.013575 1.013575 -17.66564   3    1 1.1000 0.9000   400101   391231   0 0   1 0    0.00000    0.00000 0    0.00000    0.00000    0.00000
    312 "3_YPS220    " 220.0000 :  1 1.038299 1.038299 -23.59564   3    1 1.1000 0.9000   400101   391231   0 0   1 0    0.00000    0.00000 0    0.00000    0.00000    0.00000
    313 "3_RSV220    " 220.0000 :  2 1.01500 1.015000 -30.23060   3    1 1.1000 0.9000   400101   391231   0 0   1 0    0.00000    0.00000 0    0.00000    0.00000    0.00000
    314 "3_SM_220    " 220.0000 :  1 1.015776 1.015776 -28.51777   3    1 1.1000 0.9000   400101   391231   0 0   1 0    0.00000    0.00000 0    0.00000    0.00000    0.00000
    315 "3_H__275    " 275.0000 :  1 1.037622 1.037622 -39.01441   3    1 1.1000 0.9000   400101   391231   0 0   1 0    0.00000    0.00000 0    0.00000    0.00000    0.00000
    401 "4_TPSGEN    "  20.0000 :  2 1.00000 1.000000  74.33421   4    1 1.1000 0.9000   400101   391231   0 0   1 0    0.00000    0.00000 0    0.00000    0.00000    0.00000
    402 "4_CPSGEN    "  20.0000 :  2 1.00000 1.000000 107.93788   4    1 1.1000 0.9000   400101   391231   0 0   1 0    0.00000    0.00000 0    0.00000    0.00000    0.00000
    403 "4_SPSGEN    "  20.0000 :  2 1.00000 1.000000 113.33563   4    1 1.1000 0.9000   400101   391231   0 0   1 0    0.00000    0.00000 0    0.00000    0.00000    0.00000
    404 "4_GPSGEN    "  20.0000 :  2 1.00000 1.000000 106.52476   4    1 1.1000 0.9000   400101   391231   0 0   1 0    0.00000    0.00000 0    0.00000    0.00000    0.00000
    405 "4_GPS275    " 275.0000 :  1 1.031183 1.031183  99.53636   4    1 1.1000 0.9000   400101   391231   0 0   1 0    0.00000    0.00000 0    0.00000    0.00000    0.00000
    406 "4_N__275    " 275.0000 :  1 1.034165 1.034165 104.78444   4    1 1.1000 0.9000   400101   391231   0 0   1 0    0.00000    0.00000 0    0.00000    0.00000    0.00000
    407 "4_SPS275    " 275.0000 :  1 1.039268 1.039268 107.11187   4    1 1.1000 0.9000   400101   391231   0 0   1 0    0.00000    0.00000 0    0.00000    0.00000    0.00000
    408 "4_CPS275    " 275.0000 :  1 1.030136 1.030136 100.37856   4    1 1.1000 0.9000   400101   391231   0 0   1 0    0.00000    0.00000 0    0.00000    0.00000    0.00000
    409 "4_W__275    " 275.0000 :  1 0.985525 0.985525  76.61170   4    1 1.1000 0.9000   400101   391231   0 0   1 0    0.00000    0.00000 0    0.00000    0.00000    0.00000
    410 "4_TPS275    " 275.0000 :  1 1.030116 1.030116  68.14366   4    1 1.1000 0.9000   400101   391231   0 0   1 0    0.00000    0.00000 0    0.00000    0.00000    0.00000
    411 "4_SP_275    " 275.0000 :  1 0.993048 0.993048  62.24525   4    1 1.1000 0.9000   400101   391231   0 0   1 0    0.00000    0.00000 0    0.00000    0.00000    0.00000
    412 "4_BW_275    " 275.0000 :  2 1.00000 1.000000  60.97225   4    1 1.1000 0.9000   400101   391231   0 0   1 0    0.00000    0.00000 0    0.00000    0.00000    0.00000
    413 "4_BR_275    " 275.0000 :  1 1.039817 1.039817  60.95007   4    1 1.1000 0.9000   400101   391231   0 0   1 0    0.00000    0.00000 0    0.00000    0.00000    0.00000
    414 "4_BR_330    " 330.0000 :  1 1.041828 1.041828  60.19765   4    1 1.1000 0.9000   400101   391231   0 0   1 0    0.00000    0.00000 0    0.00000    0.00000    0.00000
    415 "4_BU_330    " 330.0000 :  1 1.047383 1.047383  56.65605   4    1 1.1000 0.9000   400101   391231   0 0   1 0    0.00000    0.00000 0    0.00000    0.00000    0.00000
    416 "4_DU_330    " 330.0000 :  1 1.055240 1.055240  50.26733   4    1 1.1000 0.9000   400101   391231   0 0   1 0    0.00000    0.00000 0    0.00000    0.00000    0.00000
    501 "5_NPSGEN    "  20.0000 :  2 1.00000 1.000000 -55.31639   5    1 1.1000 0.9000   400101   391231   0 0   1 0    0.00000    0.00000 0    0.00000    0.00000    0.00000
    502 "5_TPSGEN    "  15.0000 :  2 1.00000 1.000000 -53.95313   5    1 1.1000 0.9000   400101   391231   0 0   1 0    0.00000    0.00000 0    0.00000    0.00000    0.00000
    503 "5_PPSGEN    "  15.0000 :  2 1.00000 1.000000 -56.28442   5    1 1.1000 0.9000   400101   391231   0 0   1 0    0.00000    0.00000 0    0.00000    0.00000    0.00000
    504 "5_D__275    " 275.0000 :  1 1.047849 1.047849 -63.31003   5    1 1.1000 0.9000   400101   391231   0 0   1 0    0.00000    0.00000 0    0.00000    0.00000    0.00000
    505 "5_TPS275    " 275.0000 :  1 1.022059 1.022059 -60.87427   5    1 1.1000 0.9000   400101   391231   0 0   1 0    0.00000    0.00000 0    0.00000    0.00000    0.00000
    506 "5_PPS275    " 275.0000 :  1 1.020428 1.020428 -62.18370   5    1 1.1000 0.9000   400101   391231   0 0   1 0    0.00000    0.00000 0    0.00000    0.00000    0.00000
    507 "5_PSV275    " 275.0000 :  2 1.01500 1.015000 -63.45522   5    1 1.1000 0.9000   400101   391231   0 0   1 0    0.00000    0.00000 0    0.00000    0.00000    0.00000
    508 "5_CG_275    " 275.0000 :  1 1.010428 1.010428 -64.66161   5    1 1.1000 0.9000   400101   391231   0 0   1 0    0.00000    0.00000 0    0.00000    0.00000    0.00000
    509 "5_SSV275    " 275.0000 :  2 1.03000 1.030000 -45.74592   5    1 1.1000 0.9000   400101   391231   0 0   1 0    0.00000    0.00000 0    0.00000    0.00000    0.00000
branch data  [  104]                                          ck  se  ------------long_id_------------    st resist   react   charge   rate1  rate2  rate3  rate4 aloss  lngth 
    102 "1_HPS330    " 330.00     217 "2_YC_330    " 330.00  "1 "  1 "                                " :  1  0.008400  0.066700  0.817000    0.0    0.0    0.0    0.0 0.000    0.0 /
   2    1  0.000000  0.000000  1.000000   400101   391231   0 1  0    0.0    0.0    0.0    0.0   1 1.000   0 0.000   0 0.000   0 0.000   0 0.000   0 0.000   0 0.000   0 0.000  0 0 
    102 "1_HPS330    " 330.00     217 "2_YC_330    " 330.00  "2 "  1 "                                " :  1  0.008400  0.066700  0.817000    0.0    0.0    0.0    0.0 0.000    0.0 /
   2    1  0.000000  0.000000  1.000000   400101   391231   0 1  0    0.0    0.0    0.0    0.0   1 1.000   0 0.000   0 0.000   0 0.000   0 0.000   0 0.000   0 0.000   0 0.000  0 0 
    102 "1_HPS330    " 330.00     217 "2_YC_330    " 330.00  "3 "  1 "                                " :  1  0.007800  0.062000  0.760000    0.0    0.0    0.0    0.0 0.000    0.0 /
   2    1  0.000000  0.000000  1.000000   400101   391231   0 1  0    0.0    0.0    0.0    0.0   1 1.000   0 0.000   0 0.000   0 0.000   0 0.000   0 0.000   0 0.000   0 0.000  0 0 
    102 "1_HPS330    " 330.00     217 "2_YC_330    " 330.00  "4 "  1 "                                " :  1  0.007800  0.062000  0.760000    0.0    0.0    0.0    0.0 0.000    0.0 /
   2    1  0.000000  0.000000  1.000000   400101   391231   0 1  0    0.0    0.0    0.0    0.0   1 1.000   0 0.000   0 0.000   0 0.000   0 0.000   0 0.000   0 0.000   0 0.000  0 0 
    102 "1_HPS330    " 330.00     309 "3_D__330    " 330.00  "1 "  1 "                                " :  1  0.004500  0.035600  0.437000    0.0    0.0    0.0    0.0 0.000    0.0 /
   3    1  0.000000  0.000000  1.000000   400101   391231   0 1  0    0.0    0.0    0.0    0.0   1 1.000   0 0.000   0 0.000   0 0.000   0 0.000   0 0.000   0 0.000   0 0.000  0 0 
    102 "1_HPS330    " 330.00     309 "3_D__330    " 330.00  "2 "  1 "                                " :  1  0.004500  0.035600  0.437000    0.0    0.0    0.0    0.0 0.000    0.0 /
   3    1  0.000000  0.000000  1.000000   400101   391231   0 1  0    0.0    0.0    0.0    0.0   1 1.000   0 0.000   0 0.000   0 0.000   0 0.000   0 0.000   0 0.000   0 0.000  0 0 
    102 "1_HPS330    " 330.00     309 "3_D__330    " 330.00  "3 "  1 "                                " :  1  0.010900  0.086800  0.760000    0.0    0.0    0.0    0.0 0.000    0.0 /
   3    1  0.000000  0.000000  1.000000   400101   391231   0 1  0    0.0    0.0    0.0    0.0   1 1.000   0 0.000   0 0.000   0 0.000   0 0.000   0 0.000   0 0.000   0 0.000  0 0 
    205 "2_ASV330    " 330.00     206 "2_BPS330    " 330.00  "1 "  1 "                                " :  1  0.009600  0.076000  0.931000    0.0    0.0    0.0    0.0 0.000    0.0 /
   2    1  0.000000  0.000000  1.000000   400101   391231   0 1  0    0.0    0.0    0.0    0.0   1 1.000   0 0.000   0 0.000   0 0.000   0 0.000   0 0.000   0 0.000   0 0.000  0 0 
    205 "2_ASV330    " 330.00     206 "2_BPS330    " 330.00  "2 "  1 "                                " :  1  0.009600  0.076000  0.931000    0.0    0.0    0.0    0.0 0.000    0.0 /
   2    1  0.000000  0.000000  1.000000   400101   391231   0 1  0    0.0    0.0    0.0    0.0   1 1.000   0 0.000   0 0.000   0 0.000   0 0.000   0 0.000   0 0.000   0 0.000  0 0 
    205 "2_ASV330    " 330.00     416 "4_DU_330    " 330.00  "1 "  1 "                                " :  1  0.003700  0.046000  0.730000    0.0    0.0    0.0    0.0 0.000    0.0 /
   4    1  0.000000  0.000000  1.000000   400101   391231   0 1  0    0.0    0.0    0.0    0.0   1 1.000   0 0.000   0 0.000   0 0.000   0 0.000   0 0.000   0 0.000   0 0.000  0 0 
    205 "2_ASV330    " 330.00     416 "4_DU_330    " 330.00  "2 "  1 "                                " :  1  0.003700  0.046000  0.730000    0.0    0.0    0.0    0.0 0.000    0.0 /
   4    1  0.000000  0.000000  1.000000   400101   391231   0 1  0    0.0    0.0    0.0    0.0   1 1.000   0 0.000   0 0.000   0 0.000   0 0.000   0 0.000   0 0.000   0 0.000  0 0 
    206 "2_BPS330    " 330.00     207 "2_N__330    " 330.00  "1 "  1 "                                " :  1  0.004500  0.035600  0.437000    0.0    0.0    0.0    0.0 0.000    0.0 /
   2    1  0.000000  0.000000  1.000000   400101   391231   0 1  0    0.0    0.0    0.0    0.0   1 1.000   0 0.000   0 0.000   0 0.000   0 0.000   0 0.000   0 0.000   0 0.000  0 0 
    206 "2_BPS330    " 330.00     207 "2_N__330    " 330.00  "2 "  1 "                                " :  1  0.004500  0.035600  0.437000    0.0    0.0    0.0    0.0 0.000    0.0 /
   2    1  0.000000  0.000000  1.000000   400101   391231   0 1  0    0.0    0.0    0.0    0.0   1 1.000   0 0.000   0 0.000   0 0.000   0 0.000   0 0.000   0 0.000   0 0.000  0 0 
    206 "2_BPS330    " 330.00     212 "2_SW_330    " 330.00  "1 "  1 "                                " :  1  0.006600  0.052700  0.646000    0.0    0.0    0.0    0.0 0.000    0.0 /
   2    1  0.000000  0.000000  1.000000   400101   391231   0 1  0    0.0    0.0    0.0    0.0   1 1.000   0 0.000   0 0.000   0 0.000   0 0.000   0 0.000   0 0.000   0 0.000  0 0 
    206 "2_BPS330    " 330.00     212 "2_SW_330    " 330.00  "2 "  1 "                                " :  1  0.006600  0.052700  0.646000    0.0    0.0    0.0    0.0 0.000    0.0 /
   2    1  0.000000  0.000000  1.000000   400101   391231   0 1  0    0.0    0.0    0.0    0.0   1 1.000   0 0.000   0 0.000   0 0.000   0 0.000   0 0.000   0 0.000   0 0.000  0 0 
    206 "2_BPS330    " 330.00     215 "2_MPS330    " 330.00  "1 "  1 "                                " :  1  0.006600  0.052700  0.646000    0.0    0.0    0.0    0.0 0.000    0.0 /
   2    1  0.000000  0.000000  1.000000   400101   391231   0 1  0    0.0    0.0    0.0    0.0   1 1.000   0 0.000   0 0.000   0 0.000   0 0.000   0 0.000   0 0.000   0 0.000  0 0 
    206 "2_BPS330    " 330.00     215 "2_MPS330    " 330.00  "2 "  1 "                                " :  1  0.006600  0.052700  0.646000    0.0    0.0    0.0    0.0 0.000    0.0 /
   2    1  0.000000  0.000000  1.000000   400101   391231   0 1  0    0.0    0.0    0.0    0.0   1 1.000   0 0.000   0 0.000   0 0.000   0 0.000   0 0.000   0 0.000   0 0.000  0 0 
    207 "2_N__330    " 330.00     208 "2_VPS330    " 330.00  "1 "  1 "                                " :  1  0.001800  0.014000  0.171000    0.0    0.0    0.0    0.0 0.000    0.0 /
   2    1  0.000000  0.000000  1.000000   400101   391231   0 1  0    0.0    0.0    0.0    0.0   1 1.000   0 0.000   0 0.000   0 0.000   0 0.000   0 0.000   0 0.000   0 0.000  0 0 
    207 "2_N__330    " 330.00     208 "2_VPS330    " 330.00  "2 "  1 "                                " :  1  0.001800  0.014000  0.171000    0.0    0.0    0.0    0.0 0.000    0.0 /
   2    1  0.000000  0.000000  1.000000   400101   391231   0 1  0    0.0    0.0    0.0    0.0   1 1.000   0 0.000   0 0.000   0 0.000   0 0.000   0 0.000   0 0.000   0 0.000  0 0 
    207 "2_N__330    " 330.00     209 "2_EPS330    " 330.00  "1 "  1 "                                " :  1  0.000800  0.006200  0.076000    0.0    0.0    0.0    0.0 0.000    0.0 /
   2    1  0.000000  0.000000  1.000000   400101   391231   0 1  0    0.0    0.0    0.0    0.0   1 1.000   0 0.000   0 0.000   0 0.000   0 0.000   0 0.000   0 0.000   0 0.000  0 0 
    208 "2_VPS330    " 330.00     211 "2_SN_330    " 330.00  "1 "  1 "                                " :  1  0.003100  0.024800  0.304000    0.0    0.0    0.0    0.0 0.000    0.0 /
   2    1  0.000000  0.000000  1.000000   400101   391231   0 1  0    0.0    0.0    0.0    0.0   1 1.000   0 0.000   0 0.000   0 0.000   0 0.000   0 0.000   0 0.000   0 0.000  0 0 
    208 "2_VPS330    " 330.00     211 "2_SN_330    " 330.00  "2 "  1 "                                " :  1  0.003100  0.024800  0.304000    0.0    0.0    0.0    0.0 0.000    0.0 /
   2    1  0.000000  0.000000  1.000000   400101   391231   0 1  0    0.0    0.0    0.0    0.0   1 1.000   0 0.000   0 0.000   0 0.000   0 0.000   0 0.000   0 0.000   0 0.000  0 0 
    208 "2_VPS330    " 330.00     211 "2_SN_330    " 330.00  "3 "  1 "                                " :  1  0.003100  0.024800  0.304000    0.0    0.0    0.0    0.0 0.000    0.0 /
   2    1  0.000000  0.000000  1.000000   400101   391231   0 1  0    0.0    0.0    0.0    0.0   1 1.000   0 0.000   0 0.000   0 0.000   0 0.000   0 0.000   0 0.000   0 0.000  0 0 
    209 "2_EPS330    " 330.00     212 "2_SW_330    " 330.00  "1 "  1 "                                " :  1  0.004500  0.035600  0.437000    0.0    0.0    0.0    0.0 0.000    0.0 /
   2    1  0.000000  0.000000  1.000000   400101   391231   0 1  0    0.0    0.0    0.0    0.0   1 1.000   0 0.000   0 0.000   0 0.000   0 0.000   0 0.000   0 0.000   0 0.000  0 0 
    210 "2_EPS500    " 500.00     213 "2_K__500    " 500.00  "1 "  1 "                                " :  1  0.001000  0.014500  1.540000    0.0    0.0    0.0    0.0 0.000    0.0 /
   2    1  0.000000  0.000000  1.000000   400101   391231   0 1  0    0.0    0.0    0.0    0.0   1 1.000   0 0.000   0 0.000   0 0.000   0 0.000   0 0.000   0 0.000   0 0.000  0 0 
    210 "2_EPS500    " 500.00     213 "2_K__500    " 500.00  "2 "  1 "                                " :  1  0.001000  0.014500  1.540000    0.0    0.0    0.0    0.0 0.000    0.0 /
   2    1  0.000000  0.000000  1.000000   400101   391231   0 1  0    0.0    0.0    0.0    0.0   1 1.000   0 0.000   0 0.000   0 0.000   0 0.000   0 0.000   0 0.000   0 0.000  0 0 
    211 "2_SN_330    " 330.00     212 "2_SW_330    " 330.00  "1 "  1 "                                " :  1  0.001400  0.010800  0.133000    0.0    0.0    0.0    0.0 0.000    0.0 /
   2    1  0.000000  0.000000  1.000000   400101   391231   0 1  0    0.0    0.0    0.0    0.0   1 1.000   0 0.000   0 0.000   0 0.000   0 0.000   0 0.000   0 0.000   0 0.000  0 0 
    211 "2_SN_330    " 330.00     212 "2_SW_330    " 330.00  "2 "  1 "                                " :  1  0.001400  0.010800  0.133000    0.0    0.0    0.0    0.0 0.000    0.0 /
   2    1  0.000000  0.000000  1.000000   400101   391231   0 1  0    0.0    0.0    0.0    0.0   1 1.000   0 0.000   0 0.000   0 0.000   0 0.000   0 0.000   0 0.000   0 0.000  0 0 
    211 "2_SN_330    " 330.00     214 "2_K__330    " 330.00  "1 "  1 "                                " :  1  0.001900  0.015500  0.190000    0.0    0.0    0.0    0.0 0.000    0.0 /
   2    1  0.000000  0.000000  1.000000   400101   391231   0 1  0    0.0    0.0    0.0    0.0   1 1.000   0 0.000   0 0.000   0 0.000   0 0.000   0 0.000   0 0.000   0 0.000  0 0 
    212 "2_SW_330    " 330.00     217 "2_YC_330    " 330.00  "1 "  1 "                                " :  1  0.007000  0.055800  0.684000    0.0    0.0    0.0    0.0 0.000    0.0 /
   2    1  0.000000  0.000000  1.000000   400101   391231   0 1  0    0.0    0.0    0.0    0.0   1 1.000   0 0.000   0 0.000   0 0.000   0 0.000   0 0.000   0 0.000   0 0.000  0 0 
    214 "2_K__330    " 330.00     216 "2_SS_330    " 330.00  "1 "  1 "                                " :  1  0.001000  0.007700  0.095000    0.0    0.0    0.0    0.0 0.000    0.0 /
   2    1  0.000000  0.000000  1.000000   400101   391231   0 1  0    0.0    0.0    0.0    0.0   1 1.000   0 0.000   0 0.000   0 0.000   0 0.000   0 0.000   0 0.000   0 0.000  0 0 
    214 "2_K__330    " 330.00     217 "2_YC_330    " 330.00  "1 "  1 "                                " :  1  0.004900  0.038800  0.475000    0.0    0.0    0.0    0.0 0.000    0.0 /
   2    1  0.000000  0.000000  1.000000   400101   391231   0 1  0    0.0    0.0    0.0    0.0   1 1.000   0 0.000   0 0.000   0 0.000   0 0.000   0 0.000   0 0.000   0 0.000  0 0 
    215 "2_MPS330    " 330.00     216 "2_SS_330    " 330.00  "1 "  1 "                                " :  1  0.005100  0.040300  0.494000    0.0    0.0    0.0    0.0 0.000    0.0 /
   2    1  0.000000  0.000000  1.000000   400101   391231   0 1  0    0.0    0.0    0.0    0.0   1 1.000   0 0.000   0 0.000   0 0.000   0 0.000   0 0.000   0 0.000   0 0.000  0 0 
    215 "2_MPS330    " 330.00     216 "2_SS_330    " 330.00  "2 "  1 "                                " :  1  0.005100  0.040300  0.494000    0.0    0.0    0.0    0.0 0.000    0.0 /
   2    1  0.000000  0.000000  1.000000   400101   391231   0 1  0    0.0    0.0    0.0    0.0   1 1.000   0 0.000   0 0.000   0 0.000   0 0.000   0 0.000   0 0.000   0 0.000  0 0 
    215 "2_MPS330    " 330.00     217 "2_YC_330    " 330.00  "1 "  1 "                                " :  1  0.007200  0.057400  0.703000    0.0    0.0    0.0    0.0 0.000    0.0 /
   2    1  0.000000  0.000000  1.000000   400101   391231   0 1  0    0.0    0.0    0.0    0.0   1 1.000   0 0.000   0 0.000   0 0.000   0 0.000   0 0.000   0 0.000   0 0.000  0 0 
    215 "2_MPS330    " 330.00     217 "2_YC_330    " 330.00  "2 "  1 "                                " :  1  0.007200  0.057400  0.703000    0.0    0.0    0.0    0.0 0.000    0.0 /
   2    1  0.000000  0.000000  1.000000   400101   391231   0 1  0    0.0    0.0    0.0    0.0   1 1.000   0 0.000   0 0.000   0 0.000   0 0.000   0 0.000   0 0.000   0 0.000  0 0 
    216 "2_SS_330    " 330.00     217 "2_YC_330    " 330.00  "1 "  1 "                                " :  1  0.005100  0.040300  0.494000    0.0    0.0    0.0    0.0 0.000    0.0 /
   2    1  0.000000  0.000000  1.000000   400101   391231   0 1  0    0.0    0.0    0.0    0.0   1 1.000   0 0.000   0 0.000   0 0.000   0 0.000   0 0.000   0 0.000   0 0.000  0 0 
    303 "3_LPS500    " 500.00     304 "3_R__500    " 500.00  "1 "  1 "                                " :  1  0.002000  0.028000  0.740000    0.0    0.0    0.0    0.0 0.000    0.0 /
   3    1  0.000000  0.000000  1.000000   400101   391231   0 1  0    0.0    0.0    0.0    0.0   1 1.000   0 0.000   0 0.000   0 0.000   0 0.000   0 0.000   0 0.000   0 0.000  0 0 
    303 "3_LPS500    " 500.00     304 "3_R__500    " 500.00  "2 "  1 "                                " :  1  0.002000  0.028000  0.740000    0.0    0.0    0.0    0.0 0.000    0.0 /
   3    1  0.000000  0.000000  1.000000   400101   391231   0 1  0    0.0    0.0    0.0    0.0   1 1.000   0 0.000   0 0.000   0 0.000   0 0.000   0 0.000   0 0.000   0 0.000  0 0 
    303 "3_LPS500    " 500.00     305 "3_SM_500    " 500.00  "1 "  1 "                                " :  1  0.001100  0.016000  1.700000    0.0    0.0    0.0    0.0 0.000    0.0 /
   3    1  0.000000  0.000000  1.000000   400101   391231   0 1  0    0.0    0.0    0.0    0.0   1 1.000   0 0.000   0 0.000   0 0.000   0 0.000   0 0.000   0 0.000   0 0.000  0 0 
    303 "3_LPS500    " 500.00     305 "3_SM_500    " 500.00  "2 "  1 "                                " :  1  0.001100  0.016000  1.700000    0.0    0.0    0.0    0.0 0.000    0.0 /
   3    1  0.000000  0.000000  1.000000   400101   391231   0 1  0    0.0    0.0    0.0    0.0   1 1.000   0 0.000   0 0.000   0 0.000   0 0.000   0 0.000   0 0.000   0 0.000  0 0 
    304 "3_R__500    " 500.00     305 "3_SM_500    " 500.00  "1 "  1 "                                " :  1  0.000300  0.004000  0.424000    0.0    0.0    0.0    0.0 0.000    0.0 /
   3    1  0.000000  0.000000  1.000000   400101   391231   0 1  0    0.0    0.0    0.0    0.0   1 1.000   0 0.000   0 0.000   0 0.000   0 0.000   0 0.000   0 0.000   0 0.000  0 0 
    305 "3_SM_500    " 500.00     306 "3_K__500    " 500.00  "1 "  1 "                                " :  1  0.000200  0.003000  0.320000    0.0    0.0    0.0    0.0 0.000    0.0 /
   3    1  0.000000  0.000000  1.000000   400101   391231   0 1  0    0.0    0.0    0.0    0.0   1 1.000   0 0.000   0 0.000   0 0.000   0 0.000   0 0.000   0 0.000   0 0.000  0 0 
    305 "3_SM_500    " 500.00     307 "3_M__500    " 500.00  "1 "  1 "                                " :  1  0.000300  0.004500  0.447000    0.0    0.0    0.0    0.0 0.000    0.0 /
   3    1  0.000000  0.000000  1.000000   400101   391231   0 1  0    0.0    0.0    0.0    0.0   1 1.000   0 0.000   0 0.000   0 0.000   0 0.000   0 0.000   0 0.000   0 0.000  0 0 
    305 "3_SM_500    " 500.00     307 "3_M__500    " 500.00  "2 "  1 "                                " :  1  0.000300  0.004500  0.447000    0.0    0.0    0.0    0.0 0.000    0.0 /
   3    1  0.000000  0.000000  1.000000   400101   391231   0 1  0    0.0    0.0    0.0    0.0   1 1.000   0 0.000   0 0.000   0 0.000   0 0.000   0 0.000   0 0.000   0 0.000  0 0 
    306 "3_K__500    " 500.00     307 "3_M__500    " 500.00  "1 "  1 "                                " :  1  0.000100  0.001200  0.127000    0.0    0.0    0.0    0.0 0.000    0.0 /
   3    1  0.000000  0.000000  1.000000   400101   391231   0 1  0    0.0    0.0    0.0    0.0   1 1.000   0 0.000   0 0.000   0 0.000   0 0.000   0 0.000   0 0.000   0 0.000  0 0 
    307 "3_M__500    " 500.00     308 "3_H__500    " 500.00  "1 "  1 "                                " :  1  0.002300  0.032500  3.445000    0.0    0.0    0.0    0.0 0.000    0.0 /
   3    1  0.000000  0.000000  1.000000   400101   391231   0 1  0    0.0    0.0    0.0    0.0   1 1.000   0 0.000   0 0.000   0 0.000   0 0.000   0 0.000   0 0.000   0 0.000  0 0 
    307 "3_M__500    " 500.00     308 "3_H__500    " 500.00  "2 "  1 "                                " :  1  0.002300  0.032500  3.445000    0.0    0.0    0.0    0.0 0.000    0.0 /
   3    1  0.000000  0.000000  1.000000   400101   391231   0 1  0    0.0    0.0    0.0    0.0   1 1.000   0 0.000   0 0.000   0 0.000   0 0.000   0 0.000   0 0.000   0 0.000  0 0 
    309 "3_D__330    " 330.00     310 "3_SS_330    " 330.00  "1 "  1 "                                " :  1  0.013500  0.106950  0.582670    0.0    0.0    0.0    0.0 0.000    0.0 /
   3    1  0.000000  0.000000  1.000000   400101   391231   0 1  0    0.0    0.0    0.0    0.0   1 1.000   0 0.000   0 0.000   0 0.000   0 0.000   0 0.000   0 0.000   0 0.000  0 0 
    309 "3_D__330    " 330.00     310 "3_SS_330    " 330.00  "2 "  1 "                                " :  1  0.013500  0.106950  0.582670    0.0    0.0    0.0    0.0 0.000    0.0 /
   3    1  0.000000  0.000000  1.000000   400101   391231   0 1  0    0.0    0.0    0.0    0.0   1 1.000   0 0.000   0 0.000   0 0.000   0 0.000   0 0.000   0 0.000   0 0.000  0 0 
    309 "3_D__330    " 330.00     310 "3_SS_330    " 330.00  "3 "  1 "                                " :  1  0.013500  0.106950  0.582670    0.0    0.0    0.0    0.0 0.000    0.0 /
   3    1  0.000000  0.000000  1.000000   400101   391231   0 1  0    0.0    0.0    0.0    0.0   1 1.000   0 0.000   0 0.000   0 0.000   0 0.000   0 0.000   0 0.000   0 0.000  0 0 
    310 "3_SS_330    " 330.00     311 "3_SM_330    " 330.00  "1 "  1 "                                " :  1  0.000000 -0.033700  0.000000    0.0    0.0    0.0    0.0 0.000    0.0 /
   3    1  0.000000  0.000000  1.000000   400101   391231   0 1  0    0.0    0.0    0.0    0.0   1 1.000   0 0.000   0 0.000   0 0.000   0 0.000   0 0.000   0 0.000   0 0.000  0 0 
    310 "3_SS_330    " 330.00     311 "3_SM_330    " 330.00  "2 "  1 "                                " :  1  0.000000 -0.033700  0.000000    0.0    0.0    0.0    0.0 0.000    0.0 /
   3    1  0.000000  0.000000  1.000000   400101   391231   0 1  0    0.0    0.0    0.0    0.0   1 1.000   0 0.000   0 0.000   0 0.000   0 0.000   0 0.000   0 0.000   0 0.000  0 0 
    312 "3_YPS220    " 220.00     313 "3_RSV220    " 220.00  "1 "  1 "                                " :  1  0.006000  0.045000  0.300000    0.0    0.0    0.0    0.0 0.000    0.0 /
   3    1  0.000000  0.000000  1.000000   400101   391231   0 1  0    0.0    0.0    0.0    0.0   1 1.000   0 0.000   0 0.000   0 0.000   0 0.000   0 0.000   0 0.000   0 0.000  0 0 
    312 "3_YPS220    " 220.00     313 "3_RSV220    " 220.00  "2 "  1 "                                " :  1  0.006000  0.045000  0.300000    0.0    0.0    0.0    0.0 0.000    0.0 /
   3    1  0.000000  0.000000  1.000000   400101   391231   0 1  0    0.0    0.0    0.0    0.0   1 1.000   0 0.000   0 0.000   0 0.000   0 0.000   0 0.000   0 0.000   0 0.000  0 0 
    312 "3_YPS220    " 220.00     313 "3_RSV220    " 220.00  "3 "  1 "                                " :  1  0.006000  0.045000  0.300000    0.0    0.0    0.0    0.0 0.000    0.0 /
   3    1  0.000000  0.000000  1.000000   400101   391231   0 1  0    0.0    0.0    0.0    0.0   1 1.000   0 0.000   0 0.000   0 0.000   0 0.000   0 0.000   0 0.000   0 0.000  0 0 
    313 "3_RSV220    " 220.00     314 "3_SM_220    " 220.00  "1 "  1 "                                " :  1  0.001000  0.010000  0.260000    0.0    0.0    0.0    0.0 0.000    0.0 /
   3    1  0.000000  0.000000  1.000000   400101   391231   0 1  0    0.0    0.0    0.0    0.0   1 1.000   0 0.000   0 0.000   0 0.000   0 0.000   0 0.000   0 0.000   0 0.000  0 0 
    313 "3_RSV220    " 220.00     314 "3_SM_220    " 220.00  "2 "  1 "                                " :  1  0.001000  0.010000  0.260000    0.0    0.0    0.0    0.0 0.000    0.0 /
   3    1  0.000000  0.000000  1.000000   400101   391231   0 1  0    0.0    0.0    0.0    0.0   1 1.000   0 0.000   0 0.000   0 0.000   0 0.000   0 0.000   0 0.000   0 0.000  0 0 
    315 "3_H__275    " 275.00     509 "5_SSV275    " 275.00  "1 "  1 "                                " :  1  0.007000  0.050000  0.190000    0.0    0.0    0.0    0.0 0.000    0.0 /
   5    1  0.000000  0.000000  1.000000   400101   391231   0 1  0    0.0    0.0    0.0    0.0   1 1.000   0 0.000   0 0.000   0 0.000   0 0.000   0 0.000   0 0.000   0 0.000  0 0 
    315 "3_H__275    " 275.00     509 "5_SSV275    " 275.00  "2 "  1 "                                " :  1  0.007000  0.050000  0.190000    0.0    0.0    0.0    0.0 0.000    0.0 /
   5    1  0.000000  0.000000  1.000000   400101   391231   0 1  0    0.0    0.0    0.0    0.0   1 1.000   0 0.000   0 0.000   0 0.000   0 0.000   0 0.000   0 0.000   0 0.000  0 0 
    405 "4_GPS275    " 275.00     406 "4_N__275    " 275.00  "1 "  1 "                                " :  1  0.003900  0.047500  0.381000    0.0    0.0    0.0    0.0 0.000    0.0 /
   4    1  0.000000  0.000000  1.000000   400101   391231   0 1  0    0.0    0.0    0.0    0.0   1 1.000   0 0.000   0 0.000   0 0.000   0 0.000   0 0.000   0 0.000   0 0.000  0 0 
    405 "4_GPS275    " 275.00     406 "4_N__275    " 275.00  "2 "  1 "                                " :  1  0.003900  0.047500  0.381000    0.0    0.0    0.0    0.0 0.000    0.0 /
   4    1  0.000000  0.000000  1.000000   400101   391231   0 1  0    0.0    0.0    0.0    0.0   1 1.000   0 0.000   0 0.000   0 0.000   0 0.000   0 0.000   0 0.000   0 0.000  0 0 
    405 "4_GPS275    " 275.00     408 "4_CPS275    " 275.00  "1 "  1 "                                " :  1  0.005400  0.050000  0.189000    0.0    0.0    0.0    0.0 0.000    0.0 /
   4    1  0.000000  0.000000  1.000000   400101   391231   0 1  0    0.0    0.0    0.0    0.0   1 1.000   0 0.000   0 0.000   0 0.000   0 0.000   0 0.000   0 0.000   0 0.000  0 0 
    405 "4_GPS275    " 275.00     409 "4_W__275    " 275.00  "1 "  1 "                                " :  1  0.018000  0.122000  0.790000    0.0    0.0    0.0    0.0 0.000    0.0 /
   4    1  0.000000  0.000000  1.000000   400101   391231   0 1  0    0.0    0.0    0.0    0.0   1 1.000   0 0.000   0 0.000   0 0.000   0 0.000   0 0.000   0 0.000   0 0.000  0 0 
    405 "4_GPS275    " 275.00     409 "4_W__275    " 275.00  "2 "  1 "                                " :  1  0.018000  0.122000  0.790000    0.0    0.0    0.0    0.0 0.000    0.0 /
   4    1  0.000000  0.000000  1.000000   400101   391231   0 1  0    0.0    0.0    0.0    0.0   1 1.000   0 0.000   0 0.000   0 0.000   0 0.000   0 0.000   0 0.000   0 0.000  0 0 
    405 "4_GPS275    " 275.00     409 "4_W__275    " 275.00  "3 "  1 "                                " :  1  0.018000  0.122000  0.790000    0.0    0.0    0.0    0.0 0.000    0.0 /
   4    1  0.000000  0.000000  1.000000   400101   391231   0 1  0    0.0    0.0    0.0    0.0   1 1.000   0 0.000   0 0.000   0 0.000   0 0.000   0 0.000   0 0.000   0 0.000  0 0 
    406 "4_N__275    " 275.00     407 "4_SPS275    " 275.00  "1 "  1 "                                " :  1  0.000600  0.007600  0.062000    0.0    0.0    0.0    0.0 0.000    0.0 /
   4    1  0.000000  0.000000  1.000000   400101   391231   0 1  0    0.0    0.0    0.0    0.0   1 1.000   0 0.000   0 0.000   0 0.000   0 0.000   0 0.000   0 0.000   0 0.000  0 0 
    406 "4_N__275    " 275.00     407 "4_SPS275    " 275.00  "2 "  1 "                                " :  1  0.000600  0.007600  0.062000    0.0    0.0    0.0    0.0 0.000    0.0 /
   4    1  0.000000  0.000000  1.000000   400101   391231   0 1  0    0.0    0.0    0.0    0.0   1 1.000   0 0.000   0 0.000   0 0.000   0 0.000   0 0.000   0 0.000   0 0.000  0 0 
    407 "4_SPS275    " 275.00     408 "4_CPS275    " 275.00  "1 "  1 "                                " :  1  0.004200  0.051300  0.412000    0.0    0.0    0.0    0.0 0.000    0.0 /
   4    1  0.000000  0.000000  1.000000   400101   391231   0 1  0    0.0    0.0    0.0    0.0   1 1.000   0 0.000   0 0.000   0 0.000   0 0.000   0 0.000   0 0.000   0 0.000  0 0 
    408 "4_CPS275    " 275.00     410 "4_TPS275    " 275.00  "1 "  1 "                                " :  1  0.016500  0.192000  0.673330    0.0    0.0    0.0    0.0 0.000    0.0 /
   4    1  0.000000  0.000000  1.000000   400101   391231   0 1  0    0.0    0.0    0.0    0.0   1 1.000   0 0.000   0 0.000   0 0.000   0 0.000   0 0.000   0 0.000   0 0.000  0 0 
    408 "4_CPS275    " 275.00     410 "4_TPS275    " 275.00  "2 "  1 "                                " :  1  0.016500  0.192000  0.673330    0.0    0.0    0.0    0.0 0.000    0.0 /
   4    1  0.000000  0.000000  1.000000   400101   391231   0 1  0    0.0    0.0    0.0    0.0   1 1.000   0 0.000   0 0.000   0 0.000   0 0.000   0 0.000   0 0.000   0 0.000  0 0 
    408 "4_CPS275    " 275.00     410 "4_TPS275    " 275.00  "3 "  1 "                                " :  1  0.016500  0.192000  0.673330    0.0    0.0    0.0    0.0 0.000    0.0 /
   4    1  0.000000  0.000000  1.000000   400101   391231   0 1  0    0.0    0.0    0.0    0.0   1 1.000   0 0.000   0 0.000   0 0.000   0 0.000   0 0.000   0 0.000   0 0.000  0 0 
    409 "4_W__275    " 275.00     411 "4_SP_275    " 275.00  "1 "  1 "                                " :  1  0.010300  0.070900  0.460000    0.0    0.0    0.0    0.0 0.000    0.0 /
   4    1  0.000000  0.000000  1.000000   400101   391231   0 1  0    0.0    0.0    0.0    0.0   1 1.000   0 0.000   0 0.000   0 0.000   0 0.000   0 0.000   0 0.000   0 0.000  0 0 
    409 "4_W__275    " 275.00     411 "4_SP_275    " 275.00  "2 "  1 "                                " :  1  0.010300  0.070900  0.460000    0.0    0.0    0.0    0.0 0.000    0.0 /
   4    1  0.000000  0.000000  1.000000   400101   391231   0 1  0    0.0    0.0    0.0    0.0   1 1.000   0 0.000   0 0.000   0 0.000   0 0.000   0 0.000   0 0.000   0 0.000  0 0 
    410 "4_TPS275    " 275.00     411 "4_SP_275    " 275.00  "1 "  1 "                                " :  1  0.004300  0.053200  0.427000    0.0    0.0    0.0    0.0 0.000    0.0 /
   4    1  0.000000  0.000000  1.000000   400101   391231   0 1  0    0.0    0.0    0.0    0.0   1 1.000   0 0.000   0 0.000   0 0.000   0 0.000   0 0.000   0 0.000   0 0.000  0 0 
    410 "4_TPS275    " 275.00     412 "4_BW_275    " 275.00  "1 "  1 "                                " :  1  0.004300  0.053200  0.427000    0.0    0.0    0.0    0.0 0.000    0.0 /
   4    1  0.000000  0.000000  1.000000   400101   391231   0 1  0    0.0    0.0    0.0    0.0   1 1.000   0 0.000   0 0.000   0 0.000   0 0.000   0 0.000   0 0.000   0 0.000  0 0 
    410 "4_TPS275    " 275.00     412 "4_BW_275    " 275.00  "2 "  1 "                                " :  1  0.004300  0.053200  0.427000    0.0    0.0    0.0    0.0 0.000    0.0 /
   4    1  0.000000  0.000000  1.000000   400101   391231   0 1  0    0.0    0.0    0.0    0.0   1 1.000   0 0.000   0 0.000   0 0.000   0 0.000   0 0.000   0 0.000   0 0.000  0 0 
    410 "4_TPS275    " 275.00     412 "4_BW_275    " 275.00  "3 "  1 "                                " :  1  0.004300  0.053200  0.427000    0.0    0.0    0.0    0.0 0.000    0.0 /
   4    1  0.000000  0.000000  1.000000   400101   391231   0 1  0    0.0    0.0    0.0    0.0   1 1.000   0 0.000   0 0.000   0 0.000   0 0.000   0 0.000   0 0.000   0 0.000  0 0 
    410 "4_TPS275    " 275.00     412 "4_BW_275    " 275.00  "4 "  1 "                                " :  1  0.004300  0.053200  0.427000    0.0    0.0    0.0    0.0 0.000    0.0 /
   4    1  0.000000  0.000000  1.000000   400101   391231   0 1  0    0.0    0.0    0.0    0.0   1 1.000   0 0.000   0 0.000   0 0.000   0 0.000   0 0.000   0 0.000   0 0.000  0 0 
    410 "4_TPS275    " 275.00     413 "4_BR_275    " 275.00  "1 "  1 "                                " :  1  0.004000  0.049400  0.400000    0.0    0.0    0.0    0.0 0.000    0.0 /
   4    1  0.000000  0.000000  1.000000   400101   391231   0 1  0    0.0    0.0    0.0    0.0   1 1.000   0 0.000   0 0.000   0 0.000   0 0.000   0 0.000   0 0.000   0 0.000  0 0 
    410 "4_TPS275    " 275.00     413 "4_BR_275    " 275.00  "2 "  1 "                                " :  1  0.004000  0.049400  0.400000    0.0    0.0    0.0    0.0 0.000    0.0 /
   4    1  0.000000  0.000000  1.000000   400101   391231   0 1  0    0.0    0.0    0.0    0.0   1 1.000   0 0.000   0 0.000   0 0.000   0 0.000   0 0.000   0 0.000   0 0.000  0 0 
    411 "4_SP_275    " 275.00     412 "4_BW_275    " 275.00  "1 "  1 "                                " :  1  0.001200  0.015200  0.122000    0.0    0.0    0.0    0.0 0.000    0.0 /
   4    1  0.000000  0.000000  1.000000   400101   391231   0 1  0    0.0    0.0    0.0    0.0   1 1.000   0 0.000   0 0.000   0 0.000   0 0.000   0 0.000   0 0.000   0 0.000  0 0 
    411 "4_SP_275    " 275.00     412 "4_BW_275    " 275.00  "2 "  1 "                                " :  1  0.001200  0.015200  0.122000    0.0    0.0    0.0    0.0 0.000    0.0 /
   4    1  0.000000  0.000000  1.000000   400101   391231   0 1  0    0.0    0.0    0.0    0.0   1 1.000   0 0.000   0 0.000   0 0.000   0 0.000   0 0.000   0 0.000   0 0.000  0 0 
    414 "4_BR_330    " 330.00     415 "4_BU_330    " 330.00  "1 "  1 "                                " :  1  0.002000  0.025000  0.390000    0.0    0.0    0.0    0.0 0.000    0.0 /
   4    1  0.000000  0.000000  1.000000   400101   391231   0 1  0    0.0    0.0    0.0    0.0   1 1.000   0 0.000   0 0.000   0 0.000   0 0.000   0 0.000   0 0.000   0 0.000  0 0 
    414 "4_BR_330    " 330.00     415 "4_BU_330    " 330.00  "2 "  1 "                                " :  1  0.002000  0.025000  0.390000    0.0    0.0    0.0    0.0 0.000    0.0 /
   4    1  0.000000  0.000000  1.000000   400101   391231   0 1  0    0.0    0.0    0.0    0.0   1 1.000   0 0.000   0 0.000   0 0.000   0 0.000   0 0.000   0 0.000   0 0.000  0 0 
    415 "4_BU_330    " 330.00     416 "4_DU_330    " 330.00  "1 "  1 "                                " :  1  0.003700  0.046000  0.730000    0.0    0.0    0.0    0.0 0.000    0.0 /
   4    1  0.000000  0.000000  1.000000   400101   391231   0 1  0    0.0    0.0    0.0    0.0   1 1.000   0 0.000   0 0.000   0 0.000   0 0.000   0 0.000   0 0.000   0 0.000  0 0 
    415 "4_BU_330    " 330.00     416 "4_DU_330    " 330.00  "2 "  1 "                                " :  1  0.003700  0.046000  0.730000    0.0    0.0    0.0    0.0 0.000    0.0 /
   4    1  0.000000  0.000000  1.000000   400101   391231   0 1  0    0.0    0.0    0.0    0.0   1 1.000   0 0.000   0 0.000   0 0.000   0 0.000   0 0.000   0 0.000   0 0.000  0 0 
    504 "5_D__275    " 275.00     507 "5_PSV275    " 275.00  "1 "  1 "                                " :  1  0.023000  0.150000  0.560000    0.0    0.0    0.0    0.0 0.000    0.0 /
   5    1  0.000000  0.000000  1.000000   400101   391231   0 1  0    0.0    0.0    0.0    0.0   1 1.000   0 0.000   0 0.000   0 0.000   0 0.000   0 0.000   0 0.000   0 0.000  0 0 
    504 "5_D__275    " 275.00     507 "5_PSV275    " 275.00  "2 "  1 "                                " :  1  0.023000  0.150000  0.560000    0.0    0.0    0.0    0.0 0.000    0.0 /
   5    1  0.000000  0.000000  1.000000   400101   391231   0 1  0    0.0    0.0    0.0    0.0   1 1.000   0 0.000   0 0.000   0 0.000   0 0.000   0 0.000   0 0.000   0 0.000  0 0 
    504 "5_D__275    " 275.00     508 "5_CG_275    " 275.00  "1 "  1 "                                " :  1  0.026000  0.019000  0.870000    0.0    0.0    0.0    0.0 0.000    0.0 /
   5    1  0.000000  0.000000  1.000000   400101   391231   0 1  0    0.0    0.0    0.0    0.0   1 1.000   0 0.000   0 0.000   0 0.000   0 0.000   0 0.000   0 0.000   0 0.000  0 0 
    504 "5_D__275    " 275.00     508 "5_CG_275    " 275.00  "2 "  1 "                                " :  1  0.026000  0.019000  0.870000    0.0    0.0    0.0    0.0 0.000    0.0 /
   5    1  0.000000  0.000000  1.000000   400101   391231   0 1  0    0.0    0.0    0.0    0.0   1 1.000   0 0.000   0 0.000   0 0.000   0 0.000   0 0.000   0 0.000   0 0.000  0 0 
    505 "5_TPS275    " 275.00     507 "5_PSV275    " 275.00  "1 "  1 "                                " :  1  0.001600  0.017000  0.030000    0.0    0.0    0.0    0.0 0.000    0.0 /
   5    1  0.000000  0.000000  1.000000   400101   391231   0 1  0    0.0    0.0    0.0    0.0   1 1.000   0 0.000   0 0.000   0 0.000   0 0.000   0 0.000   0 0.000   0 0.000  0 0 
    505 "5_TPS275    " 275.00     507 "5_PSV275    " 275.00  "2 "  1 "                                " :  1  0.001600  0.017000  0.030000    0.0    0.0    0.0    0.0 0.000    0.0 /
   5    1  0.000000  0.000000  1.000000   400101   391231   0 1  0    0.0    0.0    0.0    0.0   1 1.000   0 0.000   0 0.000   0 0.000   0 0.000   0 0.000   0 0.000   0 0.000  0 0 
    505 "5_TPS275    " 275.00     508 "5_CG_275    " 275.00  "1 "  1 "                                " :  1  0.002500  0.028000  0.170000    0.0    0.0    0.0    0.0 0.000    0.0 /
   5    1  0.000000  0.000000  1.000000   400101   391231   0 1  0    0.0    0.0    0.0    0.0   1 1.000   0 0.000   0 0.000   0 0.000   0 0.000   0 0.000   0 0.000   0 0.000  0 0 
    506 "5_PPS275    " 275.00     507 "5_PSV275    " 275.00  "1 "  1 "                                " :  1  0.001600  0.017000  0.030000    0.0    0.0    0.0    0.0 0.000    0.0 /
   5    1  0.000000  0.000000  1.000000   400101   391231   0 1  0    0.0    0.0    0.0    0.0   1 1.000   0 0.000   0 0.000   0 0.000   0 0.000   0 0.000   0 0.000   0 0.000  0 0 
    506 "5_PPS275    " 275.00     507 "5_PSV275    " 275.00  "2 "  1 "                                " :  1  0.001600  0.017000  0.030000    0.0    0.0    0.0    0.0 0.000    0.0 /
   5    1  0.000000  0.000000  1.000000   400101   391231   0 1  0    0.0    0.0    0.0    0.0   1 1.000   0 0.000   0 0.000   0 0.000   0 0.000   0 0.000   0 0.000   0 0.000  0 0 
    506 "5_PPS275    " 275.00     508 "5_CG_275    " 275.00  "1 "  1 "                                " :  1  0.003000  0.028000  0.140000    0.0    0.0    0.0    0.0 0.000    0.0 /
   5    1  0.000000  0.000000  1.000000   400101   391231   0 1  0    0.0    0.0    0.0    0.0   1 1.000   0 0.000   0 0.000   0 0.000   0 0.000   0 0.000   0 0.000   0 0.000  0 0 
    507 "5_PSV275    " 275.00     508 "5_CG_275    " 275.00  "1 "  1 "                                " :  1  0.002000  0.019000  0.090000    0.0    0.0    0.0    0.0 0.000    0.0 /
   5    1  0.000000  0.000000  1.000000   400101   391231   0 1  0    0.0    0.0    0.0    0.0   1 1.000   0 0.000   0 0.000   0 0.000   0 0.000   0 0.000   0 0.000   0 0.000  0 0 
    507 "5_PSV275    " 275.00     509 "5_SSV275    " 275.00  "1 "  1 "                                " :  1  0.090000  0.660000  0.300000    0.0    0.0    0.0    0.0 0.000    0.0 /
   5    1  0.000000  0.000000  1.000000   400101   391231   0 1  0    0.0    0.0    0.0    0.0   1 1.000   0 0.000   0 0.000   0 0.000   0 0.000   0 0.000   0 0.000   0 0.000  0 0 
    507 "5_PSV275    " 275.00     509 "5_SSV275    " 275.00  "2 "  1 "                                " :  1  0.090000  0.660000  0.300000    0.0    0.0    0.0    0.0 0.000    0.0 /
   5    1  0.000000  0.000000  1.000000   400101   391231   0 1  0    0.0    0.0    0.0    0.0   1 1.000   0 0.000   0 0.000   0 0.000   0 0.000   0 0.000   0 0.000   0 0.000  0 0 
...
transformer data  [  34]                                     ck   ------------long_id_------------     st ty --no---    reg_name          zt         int                              tert                   ar zone  tbase   ps_r    ps_x    pt_r    pt_x    ts_r    ts_x
    101 "1_HPSGEN    "  15.00     102 "1_HPS330    " 330.00  "1 " "                                " :  1  1       0 "            "   0.00  0       0 "            "   0.00       0 "            "   0.00    1    1 100.000000 0.000000E+000 9.000000E-003 0.000000E+000 0.000000E+000 0.000000E+000 0.000000E+000 /
 15.000000 330.000000  0.000000  0.000000 0.000000E+000 0.000000E+000    0.0    0.0    0.0    0.0 0.000  1.100000  0.900000  1.100000  0.900000 -0.006250  0.939000  1.000000  1.000000  1.000000   400101   391231   0 1     0.0    0.0    0.0    0.0 /
   1 1.000   0 0.000   0 0.000   0 0.000   0 0.000   0 0.000   0 0.000   0 0.000  0 /
   0.000000   0.000000  0.000000  0.000000     0.0    0.0    0.0     0.0    0.0    0.0 0.000 0.000  0  0  0 0.0000 0.0000 0 
    201 "2_BPSGEN    "  20.00     206 "2_BPS330    " 330.00  "1 " "                                " :  1  1       0 "            "   0.00  0       0 "            "   0.00       0 "            "   0.00    2    1 100.000000 0.000000E+000 4.000000E-003 0.000000E+000 0.000000E+000 0.000000E+000 0.000000E+000 /
 20.000000 330.000000  0.000000  0.000000 0.000000E+000 0.000000E+000    0.0    0.0    0.0    0.0 0.000  1.100000  0.900000  1.100000  0.900000 -0.006250  0.943400  1.000000  1.000000  1.000000   400101   391231   0 1     0.0    0.0    0.0    0.0 /
   1 1.000   0 0.000   0 0.000   0 0.000   0 0.000   0 0.000   0 0.000   0 0.000  0 /
   0.000000   0.000000  0.000000  0.000000     0.0    0.0    0.0     0.0    0.0    0.0 0.000 0.000  0  0  0 0.0000 0.0000 0 
    202 "2_EPSGEN    "  20.00     209 "2_EPS330    " 330.00  "1 " "                                " :  1  1       0 "            "   0.00  0       0 "            "   0.00       0 "            "   0.00    2    1 100.000000 0.000000E+000 5.760000E-003 0.000000E+000 0.000000E+000 0.000000E+000 0.000000E+000 /
 20.000000 330.000000  0.000000  0.000000 0.000000E+000 0.000000E+000    0.0    0.0    0.0    0.0 0.000  1.100000  0.900000  1.100000  0.900000 -0.006250  0.939000  1.000000  1.000000  1.000000   400101   391231   0 1     0.0    0.0    0.0    0.0 /
   1 1.000   0 0.000   0 0.000   0 0.000   0 0.000   0 0.000   0 0.000   0 0.000  0 /
   0.000000   0.000000  0.000000  0.000000     0.0    0.0    0.0     0.0    0.0    0.0 0.000 0.000  0  0  0 0.0000 0.0000 0 
    203 "2_VPSGEN    "  20.00     208 "2_VPS330    " 330.00  "1 " "                                " :  1  1       0 "            "   0.00  0       0 "            "   0.00       0 "            "   0.00    2    1 100.000000 0.000000E+000 7.650000E-003 0.000000E+000 0.000000E+000 0.000000E+000 0.000000E+000 /
 20.000000 330.000000  0.000000  0.000000 0.000000E+000 0.000000E+000    0.0    0.0    0.0    0.0 0.000  1.100000  0.900000  1.100000  0.900000 -0.006250  0.939000  1.000000  1.000000  1.000000   400101   391231   0 1     0.0    0.0    0.0    0.0 /
   1 1.000   0 0.000   0 0.000   0 0.000   0 0.000   0 0.000   0 0.000   0 0.000  0 /
   0.000000   0.000000  0.000000  0.000000     0.0    0.0    0.0     0.0    0.0    0.0 0.000 0.000  0  0  0 0.0000 0.0000 0 
    204 "2_MPSGEN    "  20.00     215 "2_MPS330    " 330.00  "1 " "                                " :  1  1       0 "            "   0.00  0       0 "            "   0.00       0 "            "   0.00    2    1 100.000000 0.000000E+000 4.000000E-003 0.000000E+000 0.000000E+000 0.000000E+000 0.000000E+000 /
 20.000000 330.000000  0.000000  0.000000 0.000000E+000 0.000000E+000    0.0    0.0    0.0    0.0 0.000  1.100000  0.900000  1.100000  0.900000 -0.006250  0.939000  1.000000  1.000000  1.000000   400101   391231   0 1     0.0    0.0    0.0    0.0 /
   1 1.000   0 0.000   0 0.000   0 0.000   0 0.000   0 0.000   0 0.000   0 0.000  0 /
   0.000000   0.000000  0.000000  0.000000     0.0    0.0    0.0     0.0    0.0    0.0 0.000 0.000  0  0  0 0.0000 0.0000 0 
    209 "2_EPS330    " 330.00     210 "2_EPS500    " 500.00  "1 " "                                " :  1  1       0 "            "   0.00  0       0 "            "   0.00       0 "            "   0.00    2    1 100.000000 0.000000E+000 2.720000E-002 0.000000E+000 0.000000E+000 0.000000E+000 0.000000E+000 /
 330.000000 500.000000  0.000000  0.000000 0.000000E+000 0.000000E+000    0.0    0.0    0.0    0.0 0.000  1.100000  0.900000  1.100000  0.900000 -0.006250  0.975600  1.000000  1.000000  1.000000   400101   391231   0 1     0.0    0.0    0.0    0.0 /
   1 1.000   0 0.000   0 0.000   0 0.000   0 0.000   0 0.000   0 0.000   0 0.000  0 /
   0.000000   0.000000  0.000000  0.000000     0.0    0.0    0.0     0.0    0.0    0.0 0.000 0.000  0  0  0 0.0000 0.0000 0 
    209 "2_EPS330    " 330.00     210 "2_EPS500    " 500.00  "2 " "                                " :  1  1       0 "            "   0.00  0       0 "            "   0.00       0 "            "   0.00    2    1 100.000000 0.000000E+000 2.720000E-002 0.000000E+000 0.000000E+000 0.000000E+000 0.000000E+000 /
 330.000000 500.000000  0.000000  0.000000 0.000000E+000 0.000000E+000    0.0    0.0    0.0    0.0 0.000  1.100000  0.900000  1.100000  0.900000 -0.006250  0.975600  1.000000  1.000000  1.000000   400101   391231   0 1     0.0    0.0    0.0    0.0 /
   1 1.000   0 0.000   0 0.000   0 0.000   0 0.000   0 0.000   0 0.000   0 0.000  0 /
   0.000000   0.000000  0.000000  0.000000     0.0    0.0    0.0     0.0    0.0    0.0 0.000 0.000  0  0  0 0.0000 0.0000 0 
    209 "2_EPS330    " 330.00     210 "2_EPS500    " 500.00  "3 " "                                " :  1  1       0 "            "   0.00  0       0 "            "   0.00       0 "            "   0.00    2    1 100.000000 0.000000E+000 2.720000E-002 0.000000E+000 0.000000E+000 0.000000E+000 0.000000E+000 /
 330.000000 500.000000  0.000000  0.000000 0.000000E+000 0.000000E+000    0.0    0.0    0.0    0.0 0.000  1.100000  0.900000  1.100000  0.900000 -0.006250  0.975600  1.000000  1.000000  1.000000   400101   391231   0 1     0.0    0.0    0.0    0.0 /
   1 1.000   0 0.000   0 0.000   0 0.000   0 0.000   0 0.000   0 0.000   0 0.000  0 /
   0.000000   0.000000  0.000000  0.000000     0.0    0.0    0.0     0.0    0.0    0.0 0.000 0.000  0  0  0 0.0000 0.0000 0 
    209 "2_EPS330    " 330.00     210 "2_EPS500    " 500.00  "4 " "                                " :  1  1       0 "            "   0.00  0       0 "            "   0.00       0 "            "   0.00    2    1 100.000000 0.000000E+000 2.720000E-002 0.000000E+000 0.000000E+000 0.000000E+000 0.000000E+000 /
 330.000000 500.000000  0.000000  0.000000 0.000000E+000 0.000000E+000    0.0    0.0    0.0    0.0 0.000  1.100000  0.900000  1.100000  0.900000 -0.006250  0.975600  1.000000  1.000000  1.000000   400101   391231   0 1     0.0    0.0    0.0    0.0 /
   1 1.000   0 0.000   0 0.000   0 0.000   0 0.000   0 0.000   0 0.000   0 0.000  0 /
   0.000000   0.000000  0.000000  0.000000     0.0    0.0    0.0     0.0    0.0    0.0 0.000 0.000  0  0  0 0.0000 0.0000 0 
    213 "2_K__500    " 500.00     214 "2_K__330    " 330.00  "1 " "                                " :  1  1       0 "            "   0.00  0       0 "            "   0.00       0 "            "   0.00    2    1 100.000000 0.000000E+000 2.720000E-002 0.000000E+000 0.000000E+000 0.000000E+000 0.000000E+000 /
 500.000000 330.000000  0.000000  0.000000 0.000000E+000 0.000000E+000    0.0    0.0    0.0    0.0 0.000  1.100000  0.900000  1.100000  0.900000 -0.006250  1.000000  1.000000  1.000000  1.000000   400101   391231   0 1     0.0    0.0    0.0    0.0 /
   1 1.000   0 0.000   0 0.000   0 0.000   0 0.000   0 0.000   0 0.000   0 0.000  0 /
   0.000000   0.000000  0.000000  0.000000     0.0    0.0    0.0     0.0    0.0    0.0 0.000 0.000  0  0  0 0.0000 0.0000 0 
    213 "2_K__500    " 500.00     214 "2_K__330    " 330.00  "2 " "                                " :  1  1       0 "            "   0.00  0       0 "            "   0.00       0 "            "   0.00    2    1 100.000000 0.000000E+000 2.720000E-002 0.000000E+000 0.000000E+000 0.000000E+000 0.000000E+000 /
 500.000000 330.000000  0.000000  0.000000 0.000000E+000 0.000000E+000    0.0    0.0    0.0    0.0 0.000  1.100000  0.900000  1.100000  0.900000 -0.006250  1.000000  1.000000  1.000000  1.000000   400101   391231   0 1     0.0    0.0    0.0    0.0 /
   1 1.000   0 0.000   0 0.000   0 0.000   0 0.000   0 0.000   0 0.000   0 0.000  0 /
   0.000000   0.000000  0.000000  0.000000     0.0    0.0    0.0     0.0    0.0    0.0 0.000 0.000  0  0  0 0.0000 0.0000 0 
    213 "2_K__500    " 500.00     214 "2_K__330    " 330.00  "3 " "                                " :  1  1       0 "            "   0.00  0       0 "            "   0.00       0 "            "   0.00    2    1 100.000000 0.000000E+000 2.720000E-002 0.000000E+000 0.000000E+000 0.000000E+000 0.000000E+000 /
 500.000000 330.000000  0.000000  0.000000 0.000000E+000 0.000000E+000    0.0    0.0    0.0    0.0 0.000  1.100000  0.900000  1.100000  0.900000 -0.006250  1.000000  1.000000  1.000000  1.000000   400101   391231   0 1     0.0    0.0    0.0    0.0 /
   1 1.000   0 0.000   0 0.000   0 0.000   0 0.000   0 0.000   0 0.000   0 0.000  0 /
   0.000000   0.000000  0.000000  0.000000     0.0    0.0    0.0     0.0    0.0    0.0 0.000 0.000  0  0  0 0.0000 0.0000 0 
    213 "2_K__500    " 500.00     214 "2_K__330    " 330.00  "4 " "                                " :  1  1       0 "            "   0.00  0       0 "            "   0.00       0 "            "   0.00    2    1 100.000000 0.000000E+000 2.720000E-002 0.000000E+000 0.000000E+000 0.000000E+000 0.000000E+000 /
 500.000000 330.000000  0.000000  0.000000 0.000000E+000 0.000000E+000    0.0    0.0    0.0    0.0 0.000  1.100000  0.900000  1.100000  0.900000 -0.006250  1.000000  1.000000  1.000000  1.000000   400101   391231   0 1     0.0    0.0    0.0    0.0 /
   1 1.000   0 0.000   0 0.000   0 0.000   0 0.000   0 0.000   0 0.000   0 0.000  0 /
   0.000000   0.000000  0.000000  0.000000     0.0    0.0    0.0     0.0    0.0    0.0 0.000 0.000  0  0  0 0.0000 0.0000 0 
    301 "3_LPSGEN    "  20.00     303 "3_LPS500    " 500.00  "1 " "                                " :  1  1       0 "            "   0.00  0       0 "            "   0.00       0 "            "   0.00    3    1 100.000000 0.000000E+000 3.430000E-003 0.000000E+000 0.000000E+000 0.000000E+000 0.000000E+000 /
 20.000000 500.000000  0.000000  0.000000 0.000000E+000 0.000000E+000    0.0    0.0    0.0    0.0 0.000  1.100000  0.900000  1.100000  0.900000 -0.006250  0.939000  1.000000  1.000000  1.000000   400101   391231   0 1     0.0    0.0    0.0    0.0 /
   1 1.000   0 0.000   0 0.000   0 0.000   0 0.000   0 0.000   0 0.000   0 0.000  0 /
   0.000000   0.000000  0.000000  0.000000     0.0    0.0    0.0     0.0    0.0    0.0 0.000 0.000  0  0  0 0.0000 0.0000 0 
    302 "3_YPSGEN    "  20.00     312 "3_YPS220    " 220.00  "1 " "                                " :  1  1       0 "            "   0.00  0       0 "            "   0.00       0 "            "   0.00    3    1 100.000000 0.000000E+000 1.127000E-002 0.000000E+000 0.000000E+000 0.000000E+000 0.000000E+000 /
 20.000000 220.000000  0.000000  0.000000 0.000000E+000 0.000000E+000    0.0    0.0    0.0    0.0 0.000  1.100000  0.900000  1.100000  0.900000 -0.006250  0.952400  1.000000  1.000000  1.000000   400101   391231   0 1     0.0    0.0    0.0    0.0 /
   1 1.000   0 0.000   0 0.000   0 0.000   0 0.000   0 0.000   0 0.000   0 0.000  0 /
   0.000000   0.000000  0.000000  0.000000     0.0    0.0    0.0     0.0    0.0    0.0 0.000 0.000  0  0  0 0.0000 0.0000 0 
    304 "3_R__500    " 500.00     313 "3_RSV220    " 220.00  "1 " "                                " :  1  1       0 "            "   0.00  0       0 "            "   0.00       0 "            "   0.00    3    1 100.000000 0.000000E+000 3.200000E-002 0.000000E+000 0.000000E+000 0.000000E+000 0.000000E+000 /
 500.000000 220.000000  0.000000  0.000000 0.000000E+000 0.000000E+000    0.0    0.0    0.0    0.0 0.000  1.100000  0.900000  1.100000  0.900000 -0.006250  0.961500  1.000000  1.000000  1.000000   400101   391231   0 1     0.0    0.0    0.0    0.0 /
   1 1.000   0 0.000   0 0.000   0 0.000   0 0.000   0 0.000   0 0.000   0 0.000  0 /
   0.000000   0.000000  0.000000  0.000000     0.0    0.0    0.0     0.0    0.0    0.0 0.000 0.000  0  0  0 0.0000 0.0000 0 
...